Version 4
SHEET 1 880 680
WIRE 272 -32 80 -32
WIRE 80 32 80 -32
WIRE 96 32 80 32
WIRE 304 48 288 48
WIRE 96 64 -48 64
WIRE 288 64 288 48
WIRE 288 64 176 64
WIRE 384 64 368 64
WIRE 448 64 448 48
WIRE 448 64 384 64
WIRE 272 80 272 -32
WIRE 304 80 272 80
WIRE 96 96 80 96
WIRE 384 112 384 64
WIRE 384 112 288 112
WIRE 272 128 272 80
WIRE 384 128 272 128
WIRE -96 160 -96 144
WIRE -96 160 -160 160
WIRE -64 160 -96 160
WIRE 80 160 80 96
WIRE 80 160 -32 160
WIRE -64 176 -64 160
WIRE -32 176 -32 160
WIRE -32 176 -64 176
WIRE 80 192 80 160
WIRE 96 192 80 192
WIRE 288 192 288 112
WIRE 304 192 288 192
WIRE 384 208 384 128
WIRE 384 208 368 208
WIRE 96 224 16 224
WIRE 304 224 176 224
WIRE 96 256 80 256
WIRE 80 288 80 256
WIRE 288 288 288 192
WIRE 288 288 80 288
FLAG -48 144 0
FLAG -160 240 0
FLAG 16 304 0
SYMBOL EXP6_1 336 64 R0
SYMATTR InstName X1
SYMBOL EXP6_1 336 208 R0
SYMATTR InstName X2
SYMBOL threeinputnand 128 64 R0
SYMATTR InstName X3
SYMBOL threeinputnand 128 224 R0
SYMATTR InstName X4
SYMBOL voltage -48 48 R0
WINDOW 123 0 0 Left 0
WINDOW 39 0 0 Left 0
SYMATTR InstName J1
SYMATTR Value 15
SYMBOL voltage 16 208 R0
SYMATTR InstName K1
SYMATTR Value 15
