Version 4
SHEET 1 880 680
SYMBOL Draft4 144 96 R0
SYMATTR InstName X1
SYMBOL threeinputnand 288 112 R0
SYMATTR InstName X2
