Version 4
SHEET 1 880 680
WIRE 192 -80 128 -80
WIRE 128 -64 128 -80
WIRE 432 -16 352 -16
WIRE 32 0 -48 0
WIRE -48 16 -48 0
WIRE 192 16 192 -80
WIRE 128 32 128 16
WIRE 352 32 352 -16
WIRE 32 48 32 0
WIRE -48 112 -48 96
WIRE 192 112 192 96
WIRE 256 112 192 112
WIRE 192 128 192 112
WIRE 352 128 352 112
WIRE 32 176 32 128
WIRE 128 176 32 176
WIRE 256 176 256 112
WIRE 288 176 256 176
WIRE 32 208 32 176
WIRE 192 240 192 224
WIRE 352 240 352 224
WIRE 32 320 32 288
WIRE 192 336 192 320
WIRE 352 416 352 400
FLAG 32 320 0
FLAG 192 336 0
FLAG 432 -16 0
FLAG -48 112 0
FLAG 128 32 0
FLAG 352 416 0
SYMBOL res 16 32 R0
SYMATTR InstName RB1
SYMATTR Value 100000
SYMBOL res 16 192 R0
SYMATTR InstName RB2
SYMATTR Value 50000
SYMBOL res 176 0 R0
SYMATTR InstName RC1
SYMATTR Value 5000
SYMBOL res 176 224 R0
SYMATTR InstName RE
SYMATTR Value 3000
SYMBOL res 336 224 R0
SYMATTR InstName RE2
SYMATTR Value 2000
SYMBOL npn 128 128 R0
SYMATTR InstName Q1
SYMBOL pnp 288 128 R0
SYMATTR InstName Q2
SYMBOL res 336 16 R0
SYMATTR InstName RC2
SYMATTR Value 2700
SYMBOL voltage -48 0 R0
SYMATTR InstName V1
SYMATTR Value 15
SYMBOL voltage 128 -80 R0
SYMATTR InstName V2
SYMATTR Value 15
SYMBOL voltage 352 304 R0
SYMATTR InstName V3
SYMATTR Value 15
TEXT -64 248 Left 2 !.op
