Version 4
SHEET 1 880 680
WIRE -48 16 -80 16
WIRE -80 32 -80 16
WIRE 400 48 368 48
WIRE -48 64 -48 16
WIRE 64 64 -48 64
WIRE 224 64 208 64
WIRE 400 64 400 48
WIRE 208 80 208 64
WIRE 208 80 128 80
WIRE 368 80 368 48
WIRE 368 80 288 80
WIRE 64 96 -32 96
WIRE 224 96 208 96
WIRE -32 112 -32 96
WIRE 208 128 208 96
WIRE 336 128 208 128
WIRE 368 144 368 80
WIRE 368 144 208 144
WIRE -32 192 -112 192
WIRE 64 192 -16 192
WIRE 208 192 208 144
WIRE 224 192 208 192
WIRE -16 208 -16 192
WIRE 208 208 128 208
WIRE 336 208 336 128
WIRE 336 208 288 208
WIRE 384 208 336 208
WIRE 64 224 32 224
WIRE 208 224 208 208
WIRE 224 224 208 224
WIRE 32 256 32 224
WIRE 96 256 32 256
WIRE 96 272 96 256
FLAG -80 112 0
FLAG -16 288 0
FLAG 96 352 0
FLAG -112 192 0
FLAG 400 144 0
FLAG 384 288 0
SYMBOL EXP6_1 96 80 R0
SYMATTR InstName X1
SYMBOL EXP6_1 96 208 R0
SYMATTR InstName X2
SYMBOL EXP6_1 256 80 R0
SYMATTR InstName X3
SYMBOL EXP6_1 256 208 R0
SYMATTR InstName X4
SYMBOL voltage -80 16 R0
SYMATTR InstName S
SYMATTR Value 15
SYMBOL voltage -32 96 R0
SYMATTR InstName V1
SYMATTR Value 15
SYMBOL voltage -16 192 R0
SYMATTR InstName V2
SYMATTR Value 15
SYMBOL voltage 96 256 R0
SYMATTR InstName R
SYMATTR Value 2
SYMBOL res 384 48 R0
SYMATTR InstName R1
SYMATTR Value 100
SYMBOL res 368 192 R0
SYMATTR InstName R2
SYMATTR Value 100
TEXT 192 352 Left 2 !.tran 0 0.01ms 0.001ms 001ms
