Version 4
SHEET 1 880 680
WIRE 544 -32 336 -32
WIRE 464 -16 320 -16
WIRE 640 0 352 0
WIRE 384 16 304 16
WIRE -48 48 -128 48
WIRE -128 64 -128 48
WIRE 464 64 464 -16
WIRE 304 96 304 16
WIRE 304 96 272 96
WIRE -48 112 -48 48
WIRE 32 112 -48 112
WIRE 544 112 544 -32
WIRE 320 128 320 -16
WIRE 320 128 272 128
WIRE 32 144 -64 144
WIRE 640 144 640 0
WIRE -64 160 -64 144
WIRE 192 160 112 160
WIRE 336 160 336 -32
WIRE 336 160 272 160
WIRE 32 176 16 176
WIRE 352 192 352 0
WIRE 352 192 272 192
WIRE 16 208 16 176
WIRE 32 208 16 208
WIRE 32 224 32 208
FLAG -128 144 0
FLAG -64 240 0
FLAG 32 304 0
FLAG 384 96 0
FLAG 464 144 0
FLAG 544 192 0
FLAG 640 224 0
SYMBOL ENCODER_EXP5 64 144 R0
SYMATTR InstName ENCODER
SYMBOL DECODER_EXP5 224 144 R0
SYMATTR InstName DECODER
SYMBOL voltage -128 48 R0
SYMATTR InstName V3
SYMATTR Value 2
SYMBOL voltage -64 144 R0
WINDOW 123 0 0 Left 0
WINDOW 39 0 0 Left 0
SYMATTR InstName V1
SYMATTR Value 2
SYMBOL voltage 32 208 R0
SYMATTR InstName V2
SYMATTR Value 2
SYMBOL res 368 0 R0
SYMATTR InstName R1
SYMATTR Value 100
SYMBOL res 448 48 R0
SYMATTR InstName R2
SYMATTR Value 100
SYMBOL res 528 96 R0
SYMATTR InstName R3
SYMATTR Value 100
SYMBOL res 624 128 R0
SYMATTR InstName R4
SYMATTR Value 100
TEXT 96 256 Left 2 !.dc V3 list 2 15  V2 list 2 15  V1 list 2 15
