Version 4
SHEET 1 880 680
WIRE 336 -48 144 -48
WIRE 144 16 144 -48
WIRE 160 16 144 16
WIRE 368 32 352 32
WIRE 160 48 16 48
WIRE 352 48 352 32
WIRE 352 48 240 48
WIRE 448 48 432 48
WIRE 512 48 448 48
WIRE 336 64 336 -48
WIRE 368 64 336 64
WIRE 160 80 144 80
WIRE 448 96 448 48
WIRE 448 96 352 96
WIRE 336 112 336 64
WIRE 448 112 336 112
WIRE 0 144 -96 144
WIRE 144 144 144 80
WIRE 144 144 32 144
WIRE 0 160 0 144
WIRE 32 160 32 144
WIRE 32 160 0 160
WIRE 144 176 144 144
WIRE 160 176 144 176
WIRE 352 176 352 96
WIRE 368 176 352 176
WIRE 448 192 448 112
WIRE 448 192 432 192
WIRE 528 192 448 192
WIRE 160 208 80 208
WIRE 368 208 240 208
WIRE 160 240 144 240
WIRE 144 272 144 240
WIRE 352 272 352 176
WIRE 352 272 144 272
FLAG 16 128 0
FLAG -96 224 0
FLAG 80 288 0
FLAG 528 272 0
FLAG 512 128 0
SYMBOL EXP6_1 400 48 R0
SYMATTR InstName X1
SYMBOL EXP6_1 400 192 R0
SYMATTR InstName X2
SYMBOL threeinputnand 192 48 R0
SYMATTR InstName X3
SYMBOL threeinputnand 192 208 R0
SYMATTR InstName X4
SYMBOL voltage 16 32 R0
WINDOW 123 0 0 Left 0
WINDOW 39 0 0 Left 0
SYMATTR InstName J1
SYMATTR Value 15
SYMBOL voltage -96 128 R0
WINDOW 123 0 0 Left 0
WINDOW 39 0 0 Left 0
SYMATTR InstName CK1
SYMATTR Value SINE(0 15 2000000 0 0 0 20)
SYMBOL voltage 80 192 R0
SYMATTR InstName K1
SYMATTR Value 15
SYMBOL res 512 176 R0
SYMATTR InstName R2
SYMATTR Value 100
SYMBOL res 496 32 R0
SYMATTR InstName R1
SYMATTR Value 100
TEXT 96 376 Left 2 !.tran 0 0.01ms 0.001ms 0.001ms
