Version 4
SHEET 1 880 680
WIRE 240 -64 48 -64
WIRE 48 0 48 -64
WIRE 64 0 48 0
WIRE 272 16 256 16
WIRE 64 32 -32 32
WIRE 256 32 256 16
WIRE 256 32 144 32
WIRE 352 32 336 32
WIRE 432 32 352 32
WIRE 240 48 240 -64
WIRE 272 48 240 48
WIRE 64 64 48 64
WIRE 352 80 352 32
WIRE 352 80 256 80
WIRE 240 96 240 48
WIRE 352 96 240 96
WIRE 48 112 48 64
WIRE 48 112 -32 112
WIRE 48 160 48 112
WIRE 64 160 48 160
WIRE 256 160 256 80
WIRE 272 160 256 160
WIRE 352 176 352 96
WIRE 352 176 336 176
WIRE 432 176 352 176
WIRE 64 192 -32 192
WIRE 272 192 144 192
WIRE 64 224 48 224
WIRE 48 256 48 224
WIRE 256 256 256 160
WIRE 256 256 48 256
FLAG 432 176 Z_
IOPIN 432 176 Out
FLAG -32 112 Clock
IOPIN -32 112 In
FLAG -32 192 K
IOPIN -32 192 In
FLAG -32 32 J
IOPIN -32 32 In
FLAG 432 32 Z
IOPIN 432 32 Out
SYMBOL EXP6_1 304 32 R0
SYMATTR InstName X1
SYMBOL EXP6_1 304 176 R0
SYMATTR InstName X2
SYMBOL threeinputnand 96 32 R0
SYMATTR InstName X3
SYMBOL threeinputnand 96 192 R0
SYMATTR InstName X4
