Version 4
SHEET 1 904 680
WIRE -112 -64 -192 -64
WIRE -192 -32 -192 -64
WIRE 240 16 64 16
WIRE -192 64 -192 48
WIRE 64 64 64 16
WIRE 80 64 64 64
WIRE 272 80 256 80
WIRE -112 96 -112 -64
WIRE 80 96 -112 96
WIRE 256 96 256 80
WIRE 256 96 160 96
WIRE 352 96 336 96
WIRE 448 96 352 96
WIRE 240 112 240 16
WIRE 272 112 240 112
WIRE 80 128 64 128
WIRE 352 144 352 96
WIRE 352 144 272 144
WIRE 64 176 64 128
WIRE 64 176 -624 176
WIRE -624 192 -624 176
WIRE 64 192 64 176
WIRE 64 192 48 192
WIRE 240 192 240 112
WIRE 368 192 240 192
WIRE 48 224 48 192
WIRE 64 224 48 224
WIRE 272 240 272 144
WIRE 272 240 256 240
WIRE 288 240 272 240
WIRE 64 256 16 256
WIRE 272 256 144 256
WIRE 368 256 368 192
WIRE 368 256 352 256
WIRE 416 256 368 256
WIRE 272 272 272 256
WIRE 288 272 272 272
WIRE 64 288 48 288
WIRE 48 320 48 288
WIRE 256 320 256 240
WIRE 256 320 48 320
WIRE 16 368 16 256
WIRE 96 368 16 368
WIRE 96 384 96 368
FLAG 448 176 0
FLAG 416 336 0
FLAG -192 64 0
FLAG -624 272 0
FLAG 96 464 0
SYMBOL threeinputnand 112 96 R0
SYMATTR InstName X1
SYMBOL threeinputnand 96 256 R0
SYMATTR InstName X2
SYMBOL EXP6_1 304 96 R0
SYMATTR InstName X3
SYMBOL EXP6_1 320 256 R0
SYMATTR InstName X4
SYMBOL res 432 80 R0
SYMATTR InstName R1
SYMATTR Value 100
SYMBOL res 400 240 R0
SYMATTR InstName R2
SYMATTR Value 100
SYMBOL voltage -192 -48 R0
SYMATTR InstName J
SYMATTR Value 2
SYMBOL voltage -624 176 R0
WINDOW 123 0 0 Left 0
WINDOW 39 0 0 Left 0
SYMATTR InstName CK
SYMATTR Value PULSE(2 15 0 0 0 0.001ms 0.002ms 20)
SYMBOL voltage 96 368 R0
SYMATTR InstName K
SYMATTR Value 15
TEXT 520 248 Left 2 !.tran 0 0.01ms 0.001ms 0.001ms
